90

C	-4.587816	-3.213368	-0.345260
C	-3.233114	-2.897092	-0.500333
C	-5.515246	-2.217382	-0.146417
C	-5.125712	-0.849353	-0.097990
C	-3.726071	-0.519332	-0.259595
C	-2.785674	-1.578620	-0.457723
C	-6.087619	0.167821	0.091847
C	-3.333261	0.831833	-0.227198
S	-1.691077	1.389435	-0.494234
C	-0.702774	-0.074622	-0.551369
C	-1.327073	-1.390047	-0.613230
C	0.702903	0.074495	-0.551418
C	1.327195	1.389895	-0.613070
C	2.785892	1.578387	-0.458232
C	3.726221	0.519104	-0.259840
C	3.333312	-0.832034	-0.226944
S	1.691224	-1.389615	-0.494576
C	3.233425	2.896804	-0.501486
C	4.588177	3.213035	-0.346772
C	5.515525	2.217063	-0.147504
C	5.125892	0.849094	-0.098387
C	6.087702	-0.168066	0.092014
O	-0.609677	-2.393640	-0.787883
O	0.609769	2.393606	-0.786972
H	-4.904113	-4.249628	-0.381068
H	-2.494902	-3.672082	-0.653787
H	2.495230	3.671783	-0.655083
H	4.904547	4.249255	-0.383147
C	-4.297261	1.872498	-0.016163
C	-5.683529	1.521730	0.137284
C	-6.633598	2.567550	0.337887
C	-6.250872	3.883421	0.392023
H	-6.991145	4.659926	0.546068
C	-4.888577	4.225207	0.253182
H	-4.582378	5.263475	0.305238
H	-7.676293	2.300191	0.450048
C	-3.942787	3.246020	0.057929
H	-2.905586	3.539238	-0.034593
C	4.297217	-1.872660	-0.015280
C	5.683490	-1.521922	0.138111
C	3.942598	-3.246099	0.059592
C	6.633465	-2.567702	0.339379
C	6.250606	-3.883513	0.394206
H	6.990812	-4.659978	0.548759
C	4.888295	-4.225259	0.255464
H	4.582002	-5.263469	0.308117
H	2.905364	-3.539254	-0.032758
H	7.676207	-2.300461	0.451510
C	7.535382	0.187344	0.246090
C	8.066009	0.444476	1.525545
C	8.367951	0.257317	-0.888374
C	9.419688	0.767595	1.645695
C	7.198836	0.372173	2.761180
C	9.715592	0.584239	-0.721018
C	7.828374	-0.017872	-2.272949
C	10.262138	0.845683	0.536074
H	9.824720	0.961237	2.634549
H	6.763235	-0.623025	2.888814
H	7.780128	0.602411	3.655563
H	6.366158	1.079461	2.708836
H	10.353948	0.633540	-1.598224
H	7.419691	-1.029439	-2.351274
H	7.020816	0.672334	-2.533409
H	8.614820	0.086367	-3.022252
C	11.714858	1.228126	0.687923
H	12.330587	0.771509	-0.090330
H	11.844126	2.313388	0.611890
H	12.108629	0.920225	1.659192
H	6.562557	2.461845	-0.027312
C	-7.535395	-0.187273	0.245741
C	-8.065454	-0.448202	1.524564
C	-9.417765	-0.777763	1.643664
C	-10.260132	-0.854816	0.533989
C	-9.712568	-0.596013	-0.723304
C	-8.366446	-0.262717	-0.889585
C	-7.824882	0.005873	-2.274675
C	-7.197526	-0.380734	2.759941
C	-11.725796	-1.181805	0.690922
H	-9.820649	-0.981428	2.631385
H	-10.347984	-0.656609	-1.601945
H	-7.017649	-0.686089	-2.531518
H	-7.415178	1.016740	-2.356451
H	-8.610590	-0.100467	-3.024453
H	-7.778766	-0.612264	3.654025
H	-6.365778	-1.088979	2.705554
H	-6.760587	0.613584	2.889771
H	-12.112190	-1.710086	-0.183730
H	-11.903323	-1.803780	1.571107
H	-12.320105	-0.269152	0.809957
H	-6.562240	-2.462292	-0.026040
