90

C	4.583245	3.229408	-0.000970
C	3.223314	2.913969	-0.001062
C	5.530674	2.227947	-0.000577
C	5.151682	0.858843	-0.000324
C	3.741846	0.529392	-0.000485
C	2.784004	1.587344	-0.000800
C	6.128403	-0.162514	0.000093
C	3.354975	-0.823932	-0.000338
S	1.699307	-1.365091	-0.000215
C	0.716826	0.082411	-0.000567
C	1.319212	1.398805	-0.000828
C	-0.716829	-0.082441	-0.000534
C	-1.319222	-1.398826	-0.000767
C	-2.784013	-1.587350	-0.000902
C	-3.741844	-0.529393	-0.000546
C	-3.354968	0.823927	-0.000303
S	-1.699299	1.365070	-0.000149
C	-3.223328	-2.913982	-0.001327
C	-4.583254	-3.229413	-0.001365
C	-5.530675	-2.227941	-0.000884
C	-5.151693	-0.858845	-0.000436
C	-6.128394	0.162522	0.000115
O	0.584590	2.409406	-0.001018
O	-0.584613	-2.409444	-0.000853
H	4.893806	4.267986	-0.001194
H	2.469555	3.688933	-0.001321
H	-2.469564	-3.688942	-0.001595
H	-4.893802	-4.267997	-0.001759
C	4.339161	-1.875076	-0.000180
C	5.730822	-1.524536	0.000178
C	6.698386	-2.571165	0.000535
C	6.326173	-3.891785	0.000457
H	7.080292	-4.670220	0.000758
C	4.958172	-4.234710	-0.000058
H	4.660337	-5.276693	-0.000232
H	7.746747	-2.302512	0.000860
C	3.995579	-3.252330	-0.000385
H	2.954938	-3.548322	-0.000810
C	-4.339151	1.875083	-0.000092
C	-5.730802	1.524549	0.000299
C	-3.995550	3.252332	-0.000251
C	-6.698375	2.571180	0.000781
C	-6.326142	3.891797	0.000716
H	-7.080271	4.670219	0.001090
C	-4.958139	4.234716	0.000132
H	-4.660303	5.276697	-0.000030
H	-2.954908	3.548318	-0.000713
H	-7.746773	2.302631	0.001173
C	-7.584643	-0.191974	0.000456
C	-8.269576	-0.355745	1.220351
C	-8.270522	-0.354407	-1.219205
C	-9.627913	-0.680979	1.197002
C	-7.561648	-0.182440	2.544285
C	-9.628747	-0.679641	-1.195233
C	-7.563522	-0.179573	-2.543434
C	-10.326610	-0.850340	0.001093
H	-10.152228	-0.802652	2.140230
H	-7.138758	0.821216	2.645453
H	-8.250540	-0.342819	3.375222
H	-6.733412	-0.888765	2.651900
H	-10.153749	-0.800281	-2.138230
H	-7.141495	0.824503	-2.644099
H	-6.734783	-0.885142	-2.652069
H	-8.252794	-0.339860	-3.374071
C	-11.787149	-1.233330	0.001128
H	-12.302678	-0.838918	-0.877503
H	-11.906459	-2.322305	-0.011674
H	-12.297114	-0.859968	0.892029
H	-6.584249	-2.474237	-0.000842
C	7.584709	0.191747	0.000382
C	8.268615	0.360035	1.220310
C	9.625214	0.692186	1.196920
C	10.324172	0.860355	0.000929
C	9.625878	0.691464	-1.195325
C	8.269273	0.359286	-1.219264
C	7.560831	0.190341	-2.543488
C	7.559420	0.191880	2.544233
C	11.797962	1.188554	0.001298
H	10.147084	0.824482	2.140082
H	10.148268	0.823191	-2.138277
H	6.733370	0.897843	-2.649488
H	7.136796	-0.812599	-2.646769
H	8.249830	0.351640	-3.374158
H	8.247988	0.353480	3.375201
H	6.732022	0.899574	2.649422
H	7.135159	-0.810939	2.647782
H	12.078611	1.762458	-0.884753
H	12.077177	1.766869	0.884949
H	12.402690	0.275005	0.004110
H	6.584238	2.474339	-0.000462
